/*--------------------------------*- C++ -*----------------------------------*\
| =========                 |                                                 |
| \\      /  F ield         | OpenFOAM: The Open Source CFD Toolbox           |
|  \\    /   O peration     | Version:  5                                     |
|   \\  /    A nd           | Web:      www.OpenFOAM.org                      |
|    \\/     M anipulation  |                                                 |
\*---------------------------------------------------------------------------*/
FoamFile
{
    version     2.0;
    format      ascii;
    class       volScalarField;
    object      T;
}
// * * * * * * * * * * * * * * * * * * * * * * * * * * * * * * * * * * * * * //

dimensions      [0 0 0 1 0 0 0];

internalField   uniform 298;

boundaryField
{
    region14_to_Air_Fluid
    {
        type            compressible::turbulentTemperatureRadCoupledMixed;
        value           uniform 298;
        Tnbr            T;
        kappa	          none;
        kappaMethod     solidThermo;
        qrNbr	          qr;
        qr	            none;
        neighbourFieldName	T;
    }
}

// ************************************************************************* //
