/*--------------------------------*- C++ -*----------------------------------*\
| =========                 |                                                 |
| \\      /  F ield         | OpenFOAM: The Open Source CFD Toolbox           |
|  \\    /   O peration     | Version:  5.x                                   |
|   \\  /    A nd           | Web:      www.OpenFOAM.org                      |
|    \\/     M anipulation  |                                                 |
\*---------------------------------------------------------------------------*/
/*   Windows 32 and 64 bit porting by blueCAPE: http://www.bluecape.com.pt   *\
|  Based on Windows porting (2.0.x v4) by Symscape: http://www.symscape.com   |
\*---------------------------------------------------------------------------*/
FoamFile
{
    version     2.0;
    format      ascii;
    class       dictionary;
    object      region8;
    location    "system/region8";}
// * * * * * * * * * * * * * * * * * * * * * * * * * * * * * * * * * * * * * //

scalarSource
{
	active	true;
	type	scalarSemiImplicitSource;
	scalarSemiImplicitSourceCoeffs
	{
		volumeMode	absolute;
		selectionMode	all;
		injectionRateSuSp
		{
			h	(250 0.0);
		}
	}
}

temperatureLimit
{
	active	true;
	type	limitTemperature;
	limitTemperatureCoeffs
	{
		min	280.0;
		max	350.0;
		selectionMode	all;
	}
}

// ************************************************************************* //
