/*--------------------------------*- C++ -*----------------------------------*\
| =========                 |                                                 |
| \\      /  F ield         | OpenFOAM: The Open Source CFD Toolbox           |
|  \\    /   O peration     | Version:  5.x                                   |
|   \\  /    A nd           | Web:      www.OpenFOAM.org                      |
|    \\/     M anipulation  |                                                 |
\*---------------------------------------------------------------------------*/
/*   Windows 32 and 64 bit porting by blueCAPE: http://www.bluecape.com.pt   *\
|  Based on Windows porting (2.0.x v4) by Symscape: http://www.symscape.com   |
\*---------------------------------------------------------------------------*/
FoamFile
{
    version     2.0;
    format      ascii;
    class       dictionary;
    object      fvSchemes;
}
// * * * * * * * * * * * * * * * * * * * * * * * * * * * * * * * * * * * * * //

ddtSchemes
{
	default	steadyState;
}

gradSchemes
{
	default	Gauss linear;
}

divSchemes
{
	div(((rho*nuEff)*dev2(T(grad(U)))))	Gauss linear;
	div(R)	Gauss linear;
	default	bounded Gauss upwind;
	div(phi,U)	bounded Gauss upwind;
	div(phi,h)	bounded Gauss upwind;
	div(phi,k)	bounded Gauss upwind;
	div(phi,epsilon)	bounded Gauss upwind;
	div(phi,alphat)	bounded Gauss upwind;
}

laplacianSchemes
{
	default	Gauss linear corrected;
}

interpolationSchemes
{
	default	linear;
}

snGradSchemes
{
	default	corrected;
}


// ************************************************************************* //
