/*--------------------------------*- C++ -*----------------------------------*\
| =========                 |                                                 |
| \\      /  F ield         | OpenFOAM: The Open Source CFD Toolbox           |
|  \\    /   O peration     | Version:  5                                     |
|   \\  /    A nd           | Web:      www.OpenFOAM.org                      |
|    \\/     M anipulation  |                                                 |
\*---------------------------------------------------------------------------*/
FoamFile
{
    version     2.0;
    format      ascii;
    class       volScalarField;
    location    "0/Air_Fluid";
    object      alphat;
}
// * * * * * * * * * * * * * * * * * * * * * * * * * * * * * * * * * * * * * //

dimensions      [1 -1 -1 0 0 0 0];

internalField   uniform 0;

boundaryField
{
    Air_Boundaries
    {
        type            compressible::alphatWallFunction;
        value           uniform 0;
    }
    Inlet
    {
        type            calculated;
        value           uniform 0;
    }
    Outlet
    {
        type            calculated;
        value           uniform 0;
    }
    Air_Fluid_to_Server_Solid
    {
        type            compressible::alphatWallFunction;
        value           uniform 0;
    }
    Air_Fluid_to_region17
    {
        type            compressible::alphatWallFunction;
        value           uniform 0;
    }
    Air_Fluid_to_region8
    {
        type            compressible::alphatWallFunction;
        value           uniform 0;
    }
    Air_Fluid_to_region11
    {
        type            compressible::alphatWallFunction;
        value           uniform 0;
    }
    Air_Fluid_to_region12
    {
        type            compressible::alphatWallFunction;
        value           uniform 0;
    }
    Air_Fluid_to_region10
    {
        type            compressible::alphatWallFunction;
        value           uniform 0;
    }
    Air_Fluid_to_region6
    {
        type            compressible::alphatWallFunction;
        value           uniform 0;
    }
    Air_Fluid_to_region13
    {
        type            compressible::alphatWallFunction;
        value           uniform 0;
    }
    Air_Fluid_to_region1
    {
        type            compressible::alphatWallFunction;
        value           uniform 0;
    }
    Air_Fluid_to_region14
    {
        type            compressible::alphatWallFunction;
        value           uniform 0;
    }
    Air_Fluid_to_region4
    {
        type            compressible::alphatWallFunction;
        value           uniform 0;
    }
    Air_Fluid_to_region5
    {
        type            compressible::alphatWallFunction;
        value           uniform 0;
    }
    Air_Fluid_to_region18
    {
        type            compressible::alphatWallFunction;
        value           uniform 0;
    }
    Air_Fluid_to_region7
    {
        type            compressible::alphatWallFunction;
        value           uniform 0;
    }
    Air_Fluid_to_region2
    {
        type            compressible::alphatWallFunction;
        value           uniform 0;
    }
    Air_Fluid_to_region3
    {
        type            compressible::alphatWallFunction;
        value           uniform 0;
    }
    Air_Fluid_to_region19
    {
        type            compressible::alphatWallFunction;
        value           uniform 0;
    }
    Air_Fluid_to_region9
    {
        type            compressible::alphatWallFunction;
        value           uniform 0;
    }
    Air_Fluid_to_region15
    {
        type            compressible::alphatWallFunction;
        value           uniform 0;
    }
    Air_Fluid_to_region16
    {
        type            compressible::alphatWallFunction;
        value           uniform 0;
    }

}


// ************************************************************************* //
