/*--------------------------------*- C++ -*----------------------------------*\
  =========                 |
  \\      /  F ield         | OpenFOAM: The Open Source CFD Toolbox
   \\    /   O peration     | Website:  https://openfoam.org
    \\  /    A nd           | Version:  8
     \\/     M anipulation  |
\*---------------------------------------------------------------------------*/
/*   Windows 32 and 64 bit porting by blueCAPE: http://www.bluecape.com.pt   *\
|  Based on Windows porting (2.0.x v4) by Symscape: http://www.symscape.com   |
\*---------------------------------------------------------------------------*/
FoamFile
{
    version     2.0;
    format      ascii;
    class       volScalarField;
    location    "0/Air_Fluid";
    object      cellToRegion;
}
// * * * * * * * * * * * * * * * * * * * * * * * * * * * * * * * * * * * * * //

dimensions      [0 0 0 0 0 0 0];

internalField   uniform 20;

boundaryField
{
    Inlet
    {
        type            zeroGradient;
    }
    Outlet
    {
        type            zeroGradient;
    }
    Air_Boundaries
    {
        type            zeroGradient;
    }
    Air_Fluid_to_region17
    {
        type            calculated;
        value           uniform 0;
    }
    Air_Fluid_to_region8
    {
        type            calculated;
        value           uniform 0;
    }
    Air_Fluid_to_region11
    {
        type            calculated;
        value           uniform 0;
    }
    Air_Fluid_to_region12
    {
        type            calculated;
        value           uniform 0;
    }
    Air_Fluid_to_region10
    {
        type            calculated;
        value           uniform 0;
    }
    Air_Fluid_to_region6
    {
        type            calculated;
        value           uniform 0;
    }
    Air_Fluid_to_region13
    {
        type            calculated;
        value           uniform 0;
    }
    Air_Fluid_to_region1
    {
        type            calculated;
        value           uniform 0;
    }
    Air_Fluid_to_region14
    {
        type            calculated;
        value           uniform 0;
    }
    Air_Fluid_to_region4
    {
        type            calculated;
        value           uniform 0;
    }
    Air_Fluid_to_region5
    {
        type            calculated;
        value           uniform 0;
    }
    Air_Fluid_to_region18
    {
        type            calculated;
        value           uniform 0;
    }
    Air_Fluid_to_region7
    {
        type            calculated;
        value           uniform 0;
    }
    Air_Fluid_to_region2
    {
        type            calculated;
        value           uniform 0;
    }
    Air_Fluid_to_region3
    {
        type            calculated;
        value           uniform 0;
    }
    Air_Fluid_to_region19
    {
        type            calculated;
        value           uniform 0;
    }
    Air_Fluid_to_region9
    {
        type            calculated;
        value           uniform 0;
    }
    Air_Fluid_to_region15
    {
        type            calculated;
        value           uniform 0;
    }
    Air_Fluid_to_Server_Solid
    {
        type            calculated;
        value           uniform 0;
    }
    Air_Fluid_to_region16
    {
        type            calculated;
        value           uniform 0;
    }
}


// ************************************************************************* //
