FoamFile
{
	version	2.0;
	format	ascii;
	class	dictionary;
	object  Air_Fluid;
	location	"system/Air_Fluid";
	object	fvOptions;
}
temperatureLimit
{
	active	true;
	type	limitTemperature;
	limitTemperatureCoeffs
	{
		min	280.0;
		max	340.0;
		selectionMode	all;
	}
}
