/*--------------------------------*- C++ -*----------------------------------*\
| =========                 |                                                 |
| \\      /  F ield         | OpenFOAM: The Open Source CFD Toolbox           |
|  \\    /   O peration     | Version:  5.x                                   |
|   \\  /    A nd           | Web:      www.OpenFOAM.org                      |
|    \\/     M anipulation  |                                                 |
\*---------------------------------------------------------------------------*/
/*   Windows 32 and 64 bit porting by blueCAPE: http://www.bluecape.com.pt   *\
|  Based on Windows porting (2.0.x v4) by Symscape: http://www.symscape.com   |
\*---------------------------------------------------------------------------*/
FoamFile
{
    version     2.0;
    format      ascii;
    class       dictionary;
    location    "system/Air_Fluid";
    object      fvSolution;
}
// * * * * * * * * * * * * * * * * * * * * * * * * * * * * * * * * * * * * * //

solvers
{
    p_rgh
      {
        solver	GAMG;
        smoother	GaussSeidel;
        relTol	0.01;
        cacheAgglomeration	true;
        nFinestSweeps	2;
        nPreSweeps	0;
        maxIter	100;
        nPostSweeps	1;
        agglomerator	faceAreaPair;
        nCellsInCoarsestLevel	10;
        tolerance	1.0E-6;
        mergeLevels	1;
      }
    U
      {
        solver	PBiCGStab;
        relTol	0.01;
        preconditioner	DILU;
        tolerance	1.0E-6;
        maxIter	100;
      }
    h
      {
        solver	PBiCGStab;
        relTol	0.01;
        preconditioner	DILU;
        tolerance	1.0E-8;
        maxIter	100;
      }
    rho
      {
        solver	PCG;
        relTol	0.01;
        preconditioner	DIC;
        tolerance	1.0E-6;
        maxIter	100;
      }
    k
      {
        solver	PBiCGStab;
        relTol	0.01;
        preconditioner	DILU;
        tolerance	1.0E-6;
        maxIter	100;
      }
    epsilon
      {
        solver	PBiCGStab;
        relTol	0.01;
        preconditioner	DILU;
        tolerance	1.0E-6;
        maxIter	100;
      }
}

SIMPLE
{
    nNonOrthogonalCorrectors	2;
    
    momentumPredictor	yes;
   
    pRefCell	0;
    pRefValue	100000.0;
}

relaxationFactors
{
	p_rgh	1.0;
	U	0.3;
	h	0.8;
	rho	1.0;
	k	0.8;
	epsilon	0.8;
}

// ************************************************************************* //
